       4
 i =        1, E =       -65.9790206140
 Cs         3.3048412495        1.9073860172        1.3482552611
 Cs         9.9145233686        5.7221572384        4.0447652271
 Cs         6.6096823091        3.8147715841        2.6965102689
 Sb         0.0000000000        0.0000000226        0.0000000151
       4
 i =        2, E =       -65.9889671124
 Cs         3.2544474430        1.8490749223        1.2863103132
 Cs         9.7591230114        5.5440261797        3.8567090376
 Cs         6.5067852878        3.6965489890        2.5715107749
 Sb        -0.0000002111        0.0000006709        0.0000006462
       4
 i =        3, E =       -65.9900407937
 Cs         3.2049577820        1.7915789063        1.2251359108
 Cs         9.5996080535        5.3636315278        3.6678790169
 Cs         6.4022884074        3.5775943112        2.4465123021
 Sb        -0.0000011874        0.0000022277        0.0000035432
       4
 i =        4, E =       -65.9909734834
 Cs         3.2251689882        1.8150051821        1.2500690947
 Cs         9.6580208527        5.4321398941        3.7414608406
 Cs         6.4415962343        3.6235664138        2.4957571911
 Sb        -0.0000032300       -0.0000009749        0.0000011279
       4
 i =        5, E =       -65.9909961478
 Cs         3.2235161625        1.8130742497        1.2480512456
 Cs         9.6469253926        5.4216947341        3.7322724517
 Cs         6.4351941470        3.6173827980        2.4901487148
 Sb        -0.0000088122        0.0000006249        0.0000013803
       4
 i =        6, E =       -65.9911853984
 Cs         3.2220336584        1.8110140591        1.2461628071
 Cs         9.6127732397        5.3941537486        3.7120516513
 Cs         6.4172662916        3.6026288299        2.4791038233
 Sb        -0.0000157407        0.0000154352       -0.0000017776
       4
 i =        7, E =       -65.9914497452
 Cs         3.2239889486        1.8127710138        1.2487261534
 Cs         9.5668599326        5.3623133702        3.6944320459
 Cs         6.3950709371        3.5876122148        2.4715861682
 Sb        -0.0000290778        0.0000346786        0.0000033765
       4
 i =        8, E =       -65.9914497452
 Cs         3.2239889486        1.8127710138        1.2487261534
 Cs         9.5668599326        5.3623133702        3.6944320459
 Cs         6.3950709371        3.5876122148        2.4715861682
 Sb        -0.0000290778        0.0000346786        0.0000033765
