       4
 i =        1, E =       -65.9889662145
 Cs         3.3048132578        1.9073533050        1.3482205523
 Cs         9.9144397735        5.7220599181        4.0446616528
 Cs         6.6096265157        3.8147066069        2.6964411029
 Sb         0.0000000000        0.0000000026        0.0000000017
       4
 i =        2, E =       -65.9994847315
 Cs         3.2543166939        1.8488949807        1.2861401081
 Cs         9.7597471380        5.5442717653        3.8567420131
 Cs         6.5070319269        3.6965831928        2.5714410853
 Sb        -0.0000000002        0.0000000806        0.0000001033
       4
 i =        3, E =       -66.0016824421
 Cs         3.2046929536        1.7912176387        1.2248137025
 Cs         9.6013341822        5.3642761552        3.6680687778
 Cs         6.4030130642        3.5777466860        2.4464409233
 Sb        -0.0000004078        0.0000002152       -0.0000000938
       4
 i =        4, E =       -66.0022855529
 Cs         3.2233479489        1.8128051620        1.2477691517
 Cs         9.6542533802        5.4267546962        3.7353797206
 Cs         6.4388001012        3.6197797662        2.4915741942
 Sb        -0.0000005375        0.0000001007       -0.0000001253
       4
 i =        5, E =       -66.0023588636
 Cs         3.2213435017        1.8103735821        1.2451898440
 Cs         9.6420502639        5.4149568135        3.7246097552
 Cs         6.4316960344        3.6126650020        2.4848995773
 Sb        -0.0000008460        0.0000000085       -0.0000001432
       4
 i =        6, E =       -66.0025017790
 Cs         3.2198824357        1.8082750032        1.2430245135
 Cs         9.6138962174        5.3914592595        3.7065254307
 Cs         6.4168875767        3.5998668087        2.4747747562
 Sb        -0.0000018927       -0.0000004577       -0.0000002485
       4
 i =        7, E =       -66.0026956096
 Cs         3.2218154899        1.8097905481        1.2448820135
 Cs         9.5749848882        5.3638803278        3.6904075806
 Cs         6.3983967439        3.5868349476        2.4676447665
 Sb        -0.0000039827       -0.0000012589       -0.0000002655
       4
 i =        8, E =       -66.0029297578
 Cs         3.2288775249        1.8170127120        1.2532425179
 Cs         9.5279345675        5.3368887626        3.6824237057
 Cs         6.3784003759        3.5769500687        2.4678333967
 Sb        -0.0000066202       -0.0000022907       -0.0000003519
       4
 i =        9, E =       -66.0030361287
 Cs         3.2350373971        1.8238972733        1.2613434378
 Cs         9.5127990383        5.3341339441        3.6905924314
 Cs         6.3739112466        3.5790146576        2.4759683388
 Sb        -0.0000085157       -0.0000030946       -0.0000005532
       4
 i =       10, E =       -66.0030602569
 Cs         3.2367184830        1.8261082540        1.2643485179
 Cs         9.5155960136        5.3401351485        3.6990196537
 Cs         6.3761501964        3.5831207509        2.4816845267
 Sb        -0.0000089215       -0.0000033103       -0.0000006494
       4
 i =       11, E =       -66.0030713033
 Cs         3.2363422917        1.8260747882        1.2650709577
 Cs         9.5171491157        5.3432320865        3.7032464643
 Cs         6.3767390139        3.5846525570        2.4841592025
 Sb        -0.0000088549       -0.0000033983       -0.0000007326
       4
 i =       12, E =       -66.0031040828
 Cs         3.2332535392        1.8240227190        1.2657779227
 Cs         9.5157208386        5.3475134478        3.7121022017
 Cs         6.3744818663        3.5857676798        2.4889408864
 Sb        -0.0000085827       -0.0000036030       -0.0000008816
       4
 i =       13, E =       -66.0031749771
 Cs         3.2238013722        1.8169277098        1.2654578887
 Cs         9.5022351554        5.3487369050        3.7256797043
 Cs         6.3630161789        3.5828327801        2.4955702352
 Sb        -0.0000083585       -0.0000045008       -0.0000014565
       4
 i =       14, E =       -66.0033252541
 Cs         3.1996059851        1.7980923501        1.2621981559
 Cs         9.4571118091        5.3388763089        3.7462431167
 Cs         6.3283635169        3.5684864595        2.5042232537
 Sb        -0.0000088383       -0.0000071330       -0.0000031928
       4
 i =       15, E =       -66.0035309944
 Cs         3.1589090235        1.7660329532        1.2541752227
 Cs         9.3699968334        5.3083195153        3.7655447218
 Cs         6.2644681488        3.5371810426        2.5098644250
 Sb        -0.0000092427       -0.0000111893       -0.0000059099
       4
 i =       16, E =       -66.0036777306
 Cs         3.1281619934        1.7421382746        1.2462472912
 Cs         9.2938852396        5.2720917021        3.7655912398
 Cs         6.2110455141        3.5071215585        2.5059249838
 Sb        -0.0000098925       -0.0000140826       -0.0000077933
       4
 i =       17, E =       -66.0037423655
 Cs         3.1200043615        1.7368271122        1.2426923552
 Cs         9.2659592531        5.2508502619        3.7514478024
 Cs         6.1930038296        3.4938454319        2.4970758939
 Sb        -0.0000106269       -0.0000147057       -0.0000081574
       4
 i =       18, E =       -66.0037538525
 Cs         3.1220533983        1.7399866510        1.2427491994
 Cs         9.2696464989        5.2483373899        3.7437505457
 Cs         6.1958702676        3.4941684574        2.4932554077
 Sb        -0.0000109473       -0.0000143370       -0.0000078947
       4
 i =       19, E =       -66.0037629575
 Cs         3.1218627900        1.7424243731        1.2432096328
 Cs         9.2720277643        5.2475036041        3.7400184145
 Cs         6.1969643946        3.4949703208        2.4916193933
 Sb        -0.0000112792       -0.0000141133       -0.0000077475
       4
 i =       20, E =       -66.0037885421
 Cs         3.1158070896        1.7473967218        1.2448661016
 Cs         9.2715071919        5.2447969119        3.7344975000
 Cs         6.1936734894        3.4961031265        2.4896868012
 Sb        -0.0000126088       -0.0000140190       -0.0000077075
       4
 i =       21, E =       -66.0038142819
 Cs         3.1039908012        1.7500570469        1.2468746106
 Cs         9.2624462902        5.2417516762        3.7346953731
 Cs         6.1832329890        3.4959110828        2.4907898608
 Sb        -0.0000143141       -0.0000143805       -0.0000079889
       4
 i =       22, E =       -66.0038308036
 Cs         3.0915532819        1.7493097759        1.2482312672
 Cs         9.2488734669        5.2398981086        3.7401272782
 Cs         6.1702273448        3.4946113057        2.4941842809
 Sb        -0.0000157894       -0.0000150614       -0.0000084792
       4
 i =       23, E =       -66.0038352695
 Cs         3.0872667360        1.7478640122        1.2484510127
 Cs         9.2424026409        5.2403298447        3.7441383021
 Cs         6.1648489996        3.4941045415        2.4962997635
 Sb        -0.0000162417       -0.0000154774       -0.0000087588
       4
 i =       24, E =       -66.0038385639
 Cs         3.0853409275        1.7469459902        1.2484214076
 Cs         9.2382066595        5.2414607005        3.7465909091
 Cs         6.1617881728        3.4942110879        2.4975113100
 Sb        -0.0000166619       -0.0000157550       -0.0000089279
       4
 i =       25, E =       -66.0038463506
 Cs         3.0818652522        1.7460471393        1.2482446928
 Cs         9.2299749561        5.2444414167        3.7497099163
 Cs         6.1559338810        3.4952521797        2.4989824160
 Sb        -0.0000178946       -0.0000163083       -0.0000092498
       4
 i =       26, E =       -66.0038620000
 Cs         3.0754898275        1.7462987235        1.2479012335
 Cs         9.2149484887        5.2510623626        3.7523688509
 Cs         6.1452304104        3.4986885864        2.5001398350
 Sb        -0.0000209617       -0.0000173322       -0.0000098327
       4
 i =       27, E =       -66.0038876928
 Cs         3.0655205505        1.7497325690        1.2474279176
 Cs         9.1920383942        5.2630227113        3.7517813274
 Cs         6.1287848024        3.5063856797        2.4996085677
 Sb        -0.0000268835       -0.0000189153       -0.0000106836
       4
 i =       28, E =       -66.0039105407
 Cs         3.0566646858        1.7565233476        1.2471304801
 Cs         9.1727556306        5.2754483447        3.7454967649
 Cs         6.1147080228        3.5159935914        2.4963164419
 Sb        -0.0000334920       -0.0000202948       -0.0000113414
       4
 i =       29, E =       -66.0039196905
 Cs         3.0542951165        1.7615452299        1.2471623528
 Cs         9.1690421429        5.2797380829        3.7385992595
 Cs         6.1116629319        3.5206491158        2.4928830503
 Sb        -0.0000361740       -0.0000205682       -0.0000114083
       4
 i =       30, E =       -66.0039212706
 Cs         3.0555488449        1.7627830516        1.2473637054
 Cs         9.1724914277        5.2786023062        3.7361149725
 Cs         6.1140147108        3.5207000693        2.4917416081
 Sb        -0.0000358895       -0.0000203158       -0.0000112322
       4
 i =       31, E =       -66.0039215571
 Cs         3.0562491969        1.7626200557        1.2473894561
 Cs         9.1740920562        5.2776774868        3.7359218791
 Cs         6.1151661098        3.5201561902        2.4916580654
 Sb        -0.0000354370       -0.0000202038       -0.0000111543
       4
 i =       32, E =       -66.0039219604
 Cs         3.0570094266        1.7623539808        1.2473948246
 Cs         9.1755364925        5.2769720479        3.7359791485
 Cs         6.1162701323        3.5196705103        2.4916896319
 Sb        -0.0000349426       -0.0000201206       -0.0000110649
       4
 i =       33, E =       -66.0039228354
 Cs         3.0578977570        1.7620043256        1.2473639120
 Cs         9.1766403045        5.2768326208        3.7363838990
 Cs         6.1172703105        3.5194262192        2.4918771468
 Sb        -0.0000342758       -0.0000200968       -0.0000109347
       4
 i =       34, E =       -66.0039243561
 Cs         3.0582550934        1.7618119008        1.2472573962
 Cs         9.1755082831        5.2787350359        3.7374445635
 Cs         6.1168905860        3.5202817326        2.4923553391
 Sb        -0.0000338802       -0.0000203240       -0.0000108059
       4
 i =       35, E =       -66.0039262029
 Cs         3.0571049213        1.7621376964        1.2470727435
 Cs         9.1703433056        5.2835729282        3.7390668941
 Cs         6.1137421658        3.5228642498        2.4930755129
 Sb        -0.0000343398       -0.0000209240       -0.0000107863
       4
 i =       36, E =       -66.0039269193
 Cs         3.0549861484        1.7627099092        1.2468799345
 Cs         9.1640873561        5.2883729868        3.7402891713
 Cs         6.1095593219        3.5255507718        2.4935908921
 Sb        -0.0000356166       -0.0000216032       -0.0000109460
       4
 i =       37, E =       -66.0039270822
 Cs         3.0540938271        1.7631087023        1.2468649321
 Cs         9.1619783304        5.2897733554        3.7403859517
 Cs         6.1080577673        3.5264503221        2.4936316354
 Sb        -0.0000363426       -0.0000218162       -0.0000110628
       4
 i =        1, E =       -65.9889662145
 Cs         3.3048132578        1.9073533050        1.3482205523
 Cs         9.9144397735        5.7220599181        4.0446616528
 Cs         6.6096265157        3.8147066069        2.6964411029
 Sb         0.0000000000        0.0000000026        0.0000000017
       4
 i =        2, E =       -65.9994847316
 Cs         3.2543166939        1.8488949807        1.2861401081
 Cs         9.7597471380        5.5442717653        3.8567420131
 Cs         6.5070319269        3.6965831928        2.5714410853
 Sb        -0.0000000002        0.0000000806        0.0000001033
       4
 i =        3, E =       -66.0016824422
 Cs         3.2046929537        1.7912176387        1.2248137025
 Cs         9.6013341822        5.3642761552        3.6680687778
 Cs         6.4030130642        3.5777466860        2.4464409234
 Sb        -0.0000004078        0.0000002152       -0.0000000938
       4
 i =        4, E =       -66.0022855529
 Cs         3.2233479489        1.8128051620        1.2477691517
 Cs         9.6542533802        5.4267546962        3.7353797206
 Cs         6.4388001012        3.6197797662        2.4915741942
 Sb        -0.0000005375        0.0000001007       -0.0000001253
       4
 i =        1, E =       -65.9889662145
 Cs         3.3048132578        1.9073533050        1.3482205523
 Cs         9.9144397735        5.7220599181        4.0446616528
 Cs         6.6096265157        3.8147066069        2.6964411029
 Sb         0.0000000000        0.0000000026        0.0000000017
       4
 i =        2, E =       -65.9994847316
 Cs         3.2543166939        1.8488949807        1.2861401081
 Cs         9.7597471380        5.5442717653        3.8567420131
 Cs         6.5070319269        3.6965831928        2.5714410853
 Sb        -0.0000000002        0.0000000806        0.0000001033
       4
 i =        3, E =       -66.0016824421
 Cs         3.2046929536        1.7912176387        1.2248137025
 Cs         9.6013341822        5.3642761552        3.6680687778
 Cs         6.4030130642        3.5777466860        2.4464409233
 Sb        -0.0000004078        0.0000002152       -0.0000000938
       4
 i =        4, E =       -66.0022855529
 Cs         3.2233479489        1.8128051620        1.2477691517
 Cs         9.6542533802        5.4267546962        3.7353797206
 Cs         6.4388001012        3.6197797662        2.4915741942
 Sb        -0.0000005375        0.0000001007       -0.0000001253
       4
 i =        5, E =       -66.0023588636
 Cs         3.2213435017        1.8103735821        1.2451898440
 Cs         9.6420502639        5.4149568135        3.7246097552
 Cs         6.4316960344        3.6126650020        2.4848995773
 Sb        -0.0000008460        0.0000000085       -0.0000001432
       4
 i =        6, E =       -66.0025017790
 Cs         3.2198824357        1.8082750032        1.2430245135
 Cs         9.6138962174        5.3914592595        3.7065254307
 Cs         6.4168875768        3.5998668087        2.4747747562
 Sb        -0.0000018927       -0.0000004577       -0.0000002485
       4
 i =        7, E =       -66.0026956096
 Cs         3.2218154899        1.8097905481        1.2448820135
 Cs         9.5749848882        5.3638803277        3.6904075806
 Cs         6.3983967439        3.5868349476        2.4676447665
 Sb        -0.0000039827       -0.0000012589       -0.0000002655
       4
 i =        8, E =       -66.0026956096
 Cs         3.2218154899        1.8097905481        1.2448820135
 Cs         9.5749848882        5.3638803277        3.6904075806
 Cs         6.3983967439        3.5868349476        2.4676447665
 Sb        -0.0000039827       -0.0000012589       -0.0000002655
