       4
 i =        1, E =       -65.9971783672
 Cs         3.3059766968        1.7468522652        1.2353341581
 Cs         9.9179345708        5.8051532505        4.1052722341
 Cs         6.6119539919        3.5741608000        2.5275651610
 Sb         0.0000000303       -0.0000212221       -0.0000150096
       4
 i =        2, E =       -65.9990569239
 Cs         3.3050990944        1.8217905717        1.2949217214
 Cs         9.9153720396        5.6672176818        4.0282364675
 Cs         6.6101956473        3.6618188776        2.6028068889
 Sb         0.0000023488       -0.0016981469       -0.0012071367
       4
 i =        3, E =       -65.9990672071
 Cs         3.3050625530        1.8265842284        1.2986965513
 Cs         9.9152415133        5.6585669040        4.0232267356
 Cs         6.6101126588        3.6676488657        2.6076890514
 Sb         0.0000042946       -0.0024231824       -0.0017229040
       4
 i =        4, E =       -65.9990722232
 Cs         3.3050743347        1.8282738494        1.2999637811
 Cs         9.9152512445        5.6557370623        4.0214197222
 Cs         6.6101233513        3.6699816506        2.6094804217
 Sb         0.0000072511       -0.0034324713       -0.0024404981
       4
 i =        5, E =       -65.9990968180
 Cs         3.3052095459        1.8342356381        1.3041917341
 Cs         9.9155018652        5.6465616811        4.0148686717
 Cs         6.6103140858        3.6793060761        2.6160911218
 Sb         0.0000266300       -0.0098791041       -0.0070233530
       4
 i =        6, E =       -65.9991380978
 Cs         3.3055442001        1.8412274625        1.3086856276
 Cs         9.9162119913        5.6372632670        4.0068094792
 Cs         6.6108272522        3.6923730390        2.6244304775
 Sb         0.0000688338       -0.0229098084       -0.0162808956
       4
 i =        7, E =       -65.9992078332
 Cs         3.3062929076        1.8492530977        1.3128681153
 Cs         9.9179064430        5.6295049918        3.9966902948
 Cs         6.6120174494        3.7119574408        2.6353074376
 Sb         0.0001695403       -0.0492513105       -0.0349597942
       4
 i =        8, E =       -65.9992629991
 Cs         3.3070779215        1.8508578995        1.3120268135
 Cs         9.9197795291        5.6327762008        3.9930106793
 Cs         6.6133082572        3.7240136415        2.6398923384
 Sb         0.0002858064       -0.0741333741       -0.0525425404
       4
 i =        9, E =       -65.9992837794
 Cs         3.3073825730        1.8461715829        1.3076737219
 Cs         9.9205898043        5.6425561759        3.9967986209
 Cs         6.6138598823        3.7222845501        2.6365902759
 Sb         0.0003247709       -0.0813144946       -0.0575869464
