       4
 i =        1, E =       -65.9785332424
 Cs         2.3368996362        2.3376905500        2.3384814596
 Cs         7.0106989087        7.0130716500        7.0154443789
 Cs         4.6737992725        4.6753811000        4.6769629193
 Sb        -0.0000000000       -0.0000000000        0.0000000000
       4
 i =        2, E =       -65.9850079084
 Cs         2.2775923231        2.3398169557        2.4018415611
 Cs         6.8186636816        7.0097695560        7.2000110858
 Cs         4.5481280493        4.6747932750        4.8009263358
 Sb         0.0000000899        0.0000000600        0.0000000154
       4
 i =        3, E =       -65.9857419899
 Cs         2.2973787590        2.3406128134        2.3834674570
 Cs         6.8728997455        7.0087275637        7.1431133812
 Cs         4.5851391367        4.6746701875        4.7632902653
 Sb         0.0000000200        0.0000000316       -0.0000000317
       4
 i =        4, E =       -65.9859202624
 Cs         2.2943809295        2.3419921625        2.3890830120
 Cs         6.8548875759        7.0066652225        7.1562979357
 Cs         4.5746340269        4.6743287241        4.7726901183
 Sb         0.0000000845        0.0000000381       -0.0000000679
       4
 i =        5, E =       -65.9860608583
 Cs         2.2949056345        2.3451431751        2.3945607021
 Cs         6.8358686113        7.0019817410        7.1642717622
 Cs         4.5653867538        4.6735625293        4.7794154550
 Sb         0.0000001689       -0.0000001017       -0.0000001623
       4
 i =        6, E =       -65.9863404920
 Cs         2.3014814577        2.3538750402        2.4047129525
 Cs         6.7986018038        6.9890078643        7.1707951330
 Cs         4.5500405686        4.6714415578        4.7877518647
 Sb         0.0000003669       -0.0000004080       -0.0000004844
       4
 i =        7, E =       -65.9863403336
 Cs         2.3014814577        2.3538750402        2.4047129525
 Cs         6.7986018038        6.9890078643        7.1707951330
 Cs         4.5500405686        4.6714415578        4.7877518647
 Sb         0.0000003669       -0.0000004080       -0.0000004844
