       4
 i =        1, E =       -65.9869797368
 Cs         2.3377385290        2.3376814459        2.3376243654
 Cs         7.0132588057        7.0130875606        7.0129163152
 Cs         4.6754986682        4.6753845064        4.6752703402
 Sb         0.0000000000       -0.0000000010        0.0000000010
       4
 i =        2, E =       -65.9870278061
 Cs         2.3413967289        2.3369536385        2.3325446556
 Cs         7.0277891039        7.0143747727        7.0010534071
 Cs         4.6846023093        4.6756839080        4.6668083277
 Sb         0.0000010578        0.0000072684        0.0000011325
       4
 i =        3, E =       -65.9870282922
 Cs         2.3415663328        2.3368914851        2.3322759260
 Cs         7.0287311914        7.0145239785        7.0004855506
 Cs         4.6851583591        4.6757280290        4.6663902190
 Sb         0.0000011142        0.0000074286        0.0000011899
       4
 i =        4, E =       -65.9870282922
 Cs         2.3415663328        2.3368914851        2.3322759260
 Cs         7.0287311914        7.0145239785        7.0004855506
 Cs         4.6851583591        4.6757280290        4.6663902190
 Sb         0.0000011142        0.0000074286        0.0000011899
