       4
 i =        1, E =       -65.9845403070
 Cs         2.1393460258        2.3376905570        2.3375232842
 Cs         7.1099499013        7.0130716687        7.0125157545
 Cs         4.3772534623        4.6753811252        4.6750388736
 Sb         0.0000489494       -0.0000000084       -0.0000000122
       4
 i =        2, E =       -65.9862724446
 Cs         2.2200870865        2.3376541155        2.3291687005
 Cs         6.9582186755        7.0131716756        6.9863618449
 Cs         4.4689548627        4.6754252339        4.6582938898
 Sb         0.0018187358       -0.0000095736       -0.0000295457
       4
 i =        3, E =       -65.9862965095
 Cs         2.2297904773        2.3376008754        2.3281934917
 Cs         6.9407524658        7.0132963202        6.9835596319
 Cs         4.4800648833        4.6754680719        4.6564206678
 Sb         0.0013309632       -0.0000224630       -0.0000643154
       4
 i =        4, E =       -65.9863005385
 Cs         2.2323853438        2.3375352662        2.3279925146
 Cs         6.9368451211        7.0134465921        6.9830608050
 Cs         4.4831870665        4.6755179113        4.6560882317
 Sb         0.0004734912       -0.0000381850       -0.0001056111
       4
 i =        5, E =       -65.9863099090
 Cs         2.2370604438        2.3373062732        2.3277637234
 Cs         6.9314669948        7.0139742373        6.9827071138
 Cs         4.4891588973        4.6756928145        4.6558609831
 Sb        -0.0026705663       -0.0000936806       -0.0002495610
       4
 i =        6, E =       -65.9863323928
 Cs         2.2458923002        2.3366472996        2.3276142192
 Cs         6.9247907969        7.0155048825        6.9831826986
 Cs         4.5011909239        4.6762033849        4.6562130497
 Sb        -0.0119600263       -0.0002552472       -0.0006652495
       4
 i =        7, E =       -65.9863705298
 Cs         2.2588201005        2.3352875630        2.3279081995
 Cs         6.9211777309        7.0187015866        6.9859282096
 Cs         4.5203004018        4.6772818306        4.6581408693
 Sb        -0.0316127856       -0.0005966101       -0.0015368699
       4
 i =        8, E =       -65.9864165171
 Cs         2.2707517401        2.3334315177        2.3289937945
 Cs         6.9274213831        7.0231587827        6.9916976595
 Cs         4.5405960073        4.6788137205        4.6621702872
 Sb        -0.0593565559       -0.0010835872       -0.0027768654
       4
 i =        9, E =       -65.9864432149
 Cs         2.2736164154        2.3322002683        2.3303552017
 Cs         6.9417497910        7.0262791257        6.9975101935
 Cs         4.5495455199        4.6799314028        4.6662130508
 Sb        -0.0791693048       -0.0014301605       -0.0036664375
       4
 i =       10, E =       -65.9864499348
 Cs         2.2695719785        2.3321683875        2.3309624411
 Cs         6.9508218921        7.0265938085        6.9995186460
 Cs         4.5468826079        4.6801007170        4.6675909870
 Sb        -0.0816089422       -0.0014583114       -0.0037462853
