      16
 i =        1, E =      -130.9546012130
 Te         5.9462934137       10.4906541945        8.3548104934
 Te         1.1427781394        0.5768704350        3.2575958757
 Te         5.9462934154        0.5768704350        1.8396179071
 Te         1.1427781388       10.4906541944        6.9368325237
 Te         3.5445357774        8.8548087883        2.5486068913
 Te         3.5445357774        2.2127158391        7.6458215084
 Te         1.7876545053        3.7753739387        6.2052936860
 Te         5.3014170501        7.2921506918        1.1080790688
 Te         1.7876545069        7.2921506890        3.9891347141
 Te         5.3014170496        3.7753739384        9.0863493305
 Te         2.4032301279        8.3682213585        8.3439408888
 Te         4.6858414264        2.6993032706        3.2467262736
 Te         2.4032301285        2.6993032709        1.8504875089
 Te         4.6858414263        8.3682213589        6.9477021252
 Te        -0.0000002384        5.7726887677        2.5486068913
 Te        -0.0000002384        5.2948358598        7.6458215084
      16
 i =        2, E =      -130.9547204813
 Te         5.9470615688       10.4926757236        8.3585371992
 Te         1.1455827295        0.5754909735        3.2610550106
 Te         5.9470615697        0.5754909735        1.8364263441
 Te         1.1455827294       10.4926757236        6.9339085333
 Te         3.5463221496        8.8599029232        2.5487406774
 Te         3.5463221496        2.2082637738        7.6462228667
 Te         1.7886801643        3.7755817877        6.2015342827
 Te         5.3039641348        7.2925849094        1.1040520934
 Te         1.7886801647        7.2925849088        3.9934292615
 Te         5.3039641348        3.7755817877        9.0909114507
 Te         2.4027011660        8.3669632885        8.3471019707
 Te         4.6899431333        2.7012034083        3.2496197821
 Te         2.4027011659        2.7012034083        1.8478615727
 Te         4.6899431333        8.3669632888        6.9453437620
 Te        -0.0000002386        5.7688479439        2.5487406774
 Te        -0.0000002386        5.2993187531        7.6462228667
      16
 i =        3, E =      -130.9547783176
 Te         5.9347799697       10.4869869449        8.3519906501
 Te         1.1432461736        0.5740989752        3.2596186866
 Te         5.9347799704        0.5740989752        1.8327524446
 Te         1.1432461736       10.4869869447        6.9251244095
 Te         3.5390130720        8.8636307059        2.5461855656
 Te         3.5390130720        2.1974552140        7.6385575305
 Te         1.7852694886        3.7733128725        6.1886933307
 Te         5.2927566554        7.2877730472        1.0963213658
 Te         1.7852694886        7.2877730474        3.9960497654
 Te         5.2927566554        3.7733128725        9.0884217303
 Te         2.3992159788        8.3596784486        8.3383715415
 Te         4.6788101656        2.7014074712        3.2459995771
 Te         2.3992159784        2.7014074712        1.8463715541
 Te         4.6788101656        8.3596784486        6.9387435190
 Te        -0.0000002381        5.7580415871        2.5461855656
 Te        -0.0000002381        5.3030443328        7.6385575305
      16
 i =        4, E =      -130.9548834608
 Te         5.8985840662       10.4647967602        8.3309892980
 Te         1.1410376614        0.5703848404        3.2554650771
 Te         5.8985840668        0.5703848404        1.8200583144
 Te         1.1410376616       10.4647967595        6.8955825369
 Te         3.5198108642        8.8568345840        2.5377616957
 Te         3.5198108642        2.1783470158        7.6132859181
 Te         1.7768644543        3.7640576559        6.1612335814
 Te         5.2627572741        7.2711239440        1.0857093590
 Te         1.7768644543        7.2711239443        3.9898140322
 Te         5.2627572741        3.7640576558        9.0653382547
 Te         2.3767494033        8.3350630429        8.3169152832
 Te         4.6628723252        2.7001185569        3.2413910611
 Te         2.3767494032        2.7001185569        1.8341323304
 Te         4.6628723251        8.3350630430        6.9096565528
 Te        -0.0000002368        5.7359878753        2.5377616957
 Te        -0.0000002368        5.2991937246        7.6132859181
      16
 i =        5, E =      -130.9549000825
 Te         5.8918666347       10.4606745282        8.3258660368
 Te         1.1430761283        0.5697057279        3.2546452396
 Te         5.8918666353        0.5697057279        1.8165747278
 Te         1.1430761283       10.4606745279        6.8877955254
 Te         3.5174713818        8.8537964803        2.5356099837
 Te         3.5174713818        2.1765837754        7.6068307813
 Te         1.7762274396        3.7618277208        6.1560908941
 Te         5.2587153241        7.2685525350        1.0848700964
 Te         1.7762274397        7.2685525350        3.9863498709
 Te         5.2587153240        3.7618277208        9.0575706686
 Te         2.3753800968        8.3304006353        8.3090669160
 Te         4.6595626666        2.6999796204        3.2378461182
 Te         2.3753800970        2.6999796204        1.8333738492
 Te         4.6595626666        8.3304006354        6.9045946468
 Te        -0.0000002366        5.7334928566        2.5356099837
 Te        -0.0000002366        5.2968873992        7.6068307813
      16
 i =        6, E =      -130.9549302313
 Te         5.9020761373       10.4580770939        8.2996898907
 Te         1.1452043391        0.5664217260        3.2448071948
 Te         5.9020761412        0.5664217259        1.8100746755
 Te         1.1452043383       10.4580770923        6.8649573729
 Te         3.5236402403        8.8523904727        2.5274409351
 Te         3.5236402403        2.1721083451        7.5823236328
 Te         1.7801307988        3.7576828115        6.1354615829
 Te         5.2671496830        7.2668160078        1.0805788849
 Te         1.7801307988        7.2668160070        3.9743029848
 Te         5.2671496826        3.7576828112        9.0291856830
 Te         2.3766533254        8.3202520330        8.2804058866
 Te         4.6706271530        2.7042467855        3.2255231893
 Te         2.3766533275        2.7042467855        1.8293586808
 Te         4.6706271524        8.3202520329        6.8842413782
 Te        -0.0000002370        5.7332975393        2.5274409351
 Te        -0.0000002370        5.2912012789        7.5823236328
      16
 i =        7, E =      -130.9549405391
 Te         5.9024906977       10.4576188619        8.2980538269
 Te         1.1439258352        0.5668785251        3.2437921777
 Te         5.9024906990        0.5668785251        1.8104686449
 Te         1.1439258352       10.4576188615        6.8647302949
 Te         3.5232082671        8.8526413097        2.5271304113
 Te         3.5232082671        2.1718560766        7.5813920613
 Te         1.7798892551        3.7575804642        6.1341715298
 Te         5.2665272795        7.2669169227        1.0799098796
 Te         1.7798892555        7.2669169222        3.9743509427
 Te         5.2665272795        3.7575804641        9.0286125930
 Te         2.3778824615        8.3204138460        8.2784568348
 Te         4.6685340717        2.7040835407        3.2241951851
 Te         2.3778824625        2.7040835407        1.8300656375
 Te         4.6685340717        8.3204138460        6.8843272876
 Te        -0.0000002370        5.7331477518        2.5271304113
 Te        -0.0000002370        5.2913496347        7.5813920613
      16
 i =        8, E =      -130.9549440777
 Te         5.9062224403       10.4573690132        8.2963913439
 Te         1.1431967178        0.5677522844        3.2434633438
 Te         5.9062224409        0.5677522844        1.8094638298
 Te         1.1431967179       10.4573690130        6.8623918306
 Te         3.5247095794        8.8536236536        2.5264635868
 Te         3.5247095794        2.1714976434        7.5793915876
 Te         1.7805546515        3.7574466831        6.1310170799
 Te         5.2688645075        7.2676746145        1.0780890790
 Te         1.7805546518        7.2676746142        3.9748380943
 Te         5.2688645074        3.7574466830        9.0277660953
 Te         2.3795419497        8.3205447065        8.2769138178
 Te         4.6698772081        2.7045765909        3.2239858173
 Te         2.3795419506        2.7045765909        1.8289413563
 Te         4.6698772081        8.3205447065        6.8818693571
 Te        -0.0000002371        5.7333671654        2.5264635868
 Te        -0.0000002371        5.2917541318        7.5793915876
      16
 i =        9, E =      -130.9549557260
 Te         5.9150541976       10.4512409467        8.2860062714
 Te         1.1429229201        0.5726870192        3.2410228913
 Te         5.9150541985        0.5726870191        1.8039596628
 Te         1.1429229202       10.4512409470        6.8489430429
 Te         3.5289885593        8.8506483782        2.5224912770
 Te         3.5289885593        2.1732795867        7.5674746569
 Te         1.7823373970        3.7556436635        6.1197938114
 Te         5.2756397219        7.2682843026        1.0748104314
 Te         1.7823373973        7.2682843022        3.9701721221
 Te         5.2756397218        3.7556436637        9.0151555023
 Te         2.3845535666        8.3191717007        8.2656784093
 Te         4.6734235508        2.7047562654        3.2206950295
 Te         2.3845535677        2.7047562654        1.8242875245
 Te         4.6734235511        8.3191717007        6.8692709044
 Te        -0.0000002374        5.7372400219        2.5224912770
 Te        -0.0000002374        5.2866879433        7.5674746569
      16
 i =       10, E =      -130.9549555780
 Te         5.9164251215       10.4502217051        8.2823371488
 Te         1.1422454308        0.5735869477        3.2393320228
 Te         5.9164251220        0.5735869477        1.8036722763
 Te         1.1422454308       10.4502217055        6.8466774010
 Te         3.5293352764        8.8509114325        2.5215021495
 Te         3.5293352764        2.1728972197        7.5645072742
 Te         1.7827364374        3.7552736394        6.1174216723
 Te         5.2759341157        7.2685350138        1.0744165477
 Te         1.7827364375        7.2685350136        3.9685877513
 Te         5.2759341157        3.7552736396        9.0115928761
 Te         2.3847650600        8.3187015543        8.2628722630
 Te         4.6739054926        2.7051070989        3.2198671382
 Te         2.3847650602        2.7051070989        1.8231371609
 Te         4.6739054926        8.3187015542        6.8661422855
 Te        -0.0000002374        5.7376184567        2.5215021495
 Te        -0.0000002374        5.2861901955        7.5645072742
      16
 i =       11, E =      -130.9549442339
 Te         5.9181455652       10.4492717359        8.2706871115
 Te         1.1434274178        0.5755945957        3.2344728817
 Te         5.9181455570        0.5755945957        1.8017405153
 Te         1.1434274212       10.4492717359        6.8379547393
 Te         3.5307864874        8.8558614213        2.5181066986
 Te         3.5307864874        2.1690049038        7.5543209204
 Te         1.7848880116        3.7545278573        6.1092839817
 Te         5.2766849591        7.2703384765        1.0730697595
 Te         1.7848880131        7.2703384754        3.9631436370
 Te         5.2766849629        3.7545278581        8.9993578592
 Te         2.3862194011        8.3163850166        8.2534472796
 Te         4.6753535743        2.7084813149        3.2172330567
 Te         2.3862194006        2.7084813149        1.8189803406
 Te         4.6753535746        8.3163850169        6.8551945626
 Te        -0.0000002375        5.7378273858        2.5181066986
 Te        -0.0000002375        5.2870389403        7.5543209204
      16
 i =       12, E =      -130.9549438004
 Te         5.9169768847       10.4488993547        8.2703569543
 Te         1.1435390488        0.5756547319        3.2343000566
 Te         5.9169768799        0.5756547319        1.8017560133
 Te         1.1435390490       10.4488993547        6.8378129076
 Te         3.5302579644        8.8555790345        2.5180280349
 Te         3.5302579644        2.1689750486        7.5540849292
 Te         1.7844029352        3.7545759760        6.1091786159
 Te         5.2761129928        7.2699781109        1.0731217216
 Te         1.7844029338        7.2699781099        3.9629343480
 Te         5.2761129945        3.7545759768        8.9989912425
 Te         2.3863012532        8.3160054960        8.2529791479
 Te         4.6742146758        2.7085485904        3.2169222530
 Te         2.3863012530        2.7085485905        1.8191338168
 Te         4.6742146759        8.3160054962        6.8551907111
 Te        -0.0000002375        5.7381098366        2.5180280349
 Te        -0.0000002375        5.2864442471        7.5540849292
      16
 i =       13, E =      -130.9549490576
 Te         5.9147929545       10.4483787837        8.2699391355
 Te         1.1440851040        0.5756957011        3.2340507745
 Te         5.9147929507        0.5756957011        1.8018367590
 Te         1.1440851037       10.4483787839        6.8377251169
 Te         3.5294390273        8.8552990608        2.5179437668
 Te         3.5294390273        2.1687754194        7.5538321248
 Te         1.7836474596        3.7544662857        6.1086276499
 Te         5.2752305947        7.2696081994        1.0727392919
 Te         1.7836474578        7.2696081982        3.9631482414
 Te         5.2752305962        3.7544662866        8.9990365997
 Te         2.3855109978        8.3148215410        8.2533832028
 Te         4.6733670568        2.7092529439        3.2174948442
 Te         2.3855109979        2.7092529439        1.8183926894
 Te         4.6733670568        8.3148215410        6.8542810474
 Te        -0.0000002374        5.7383319851        2.5179437668
 Te        -0.0000002374        5.2857424961        7.5538321248
      16
 i =       14, E =      -130.9549573732
 Te         5.9098535734       10.4470282889        8.2675789926
 Te         1.1445577462        0.5761913148        3.2322685661
 Te         5.9098535715        0.5761913148        1.8030410332
 Te         1.1445577457       10.4470282891        6.8383514568
 Te         3.5272056587        8.8549910256        2.5176547997
 Te         3.5272056587        2.1682285697        7.5529652235
 Te         1.7824830313        3.7533908320        6.1064269080
 Te         5.2719282863        7.2698287719        1.0711164843
 Te         1.7824830291        7.2698287705        3.9641931150
 Te         5.2719282879        3.7533908334        8.9995035391
 Te         2.3838441117        8.3123049746        8.2535801640
 Te         4.6705672057        2.7109146291        3.2182697396
 Te         2.3838441118        2.7109146292        1.8170398598
 Te         4.6705672058        8.3123049747        6.8523502835
 Te        -0.0000002373        5.7374907854        2.5176547997
 Te        -0.0000002373        5.2857288123        7.5529652235
      16
 i =       15, E =      -130.9549454123
 Te         5.9090768503       10.4470525002        8.2670303391
 Te         1.1450727621        0.5764290367        3.2319193713
 Te         5.9090768493        0.5764290367        1.8031907689
 Te         1.1450727619       10.4470525005        6.8383017332
 Te         3.5270748057        8.8556527139        2.5175550701
 Te         3.5270748057        2.1678288093        7.5526660347
 Te         1.7823965352        3.7533082673        6.1058916620
 Te         5.2717530766        7.2701732696        1.0707806976
 Te         1.7823965317        7.2701732672        3.9643294428
 Te         5.2717530787        3.7533082696        8.9994404077
 Te         2.3839991606        8.3120330420        8.2534073095
 Te         4.6701504508        2.7114484948        3.2182963442
 Te         2.3839991605        2.7114484949        1.8168137961
 Te         4.6701504508        8.3120330422        6.8519247606
 Te        -0.0000002373        5.7374723604        2.5175550701
 Te        -0.0000002373        5.2860091675        7.5526660347
