       4
 i =        1, E =       -65.9885471455
 Cs         3.3060294249        1.9087576155        1.3497100462
 Cs         9.9180882747        5.7262728465        4.0491301385
 Cs         6.6120588498        3.8175152310        2.6994200923
 Sb         0.0000000000        0.0000000000        0.0000000000
       4
 i =        2, E =       -65.9885652349
 Cs         3.3095770692        1.9128541231        1.3540550928
 Cs         9.9287312075        5.7385623694        4.0621652783
 Cs         6.6191541384        3.8257082463        2.7081101855
 Sb         0.0000000000        0.0000000000        0.0000000000
       4
 i =        3, E =       -65.9885644591
 Cs         3.3093921493        1.9126405884        1.3538285975
 Cs         9.9281764479        5.7379217652        4.0614857926
 Cs         6.6187842986        3.8252811768        2.7076571951
 Sb         0.0000000000        0.0000000000        0.0000000000
       4
 i =        4, E =       -65.9885644591
 Cs         3.3093921493        1.9126405884        1.3538285975
 Cs         9.9281764479        5.7379217652        4.0614857926
 Cs         6.6187842986        3.8252811768        2.7076571951
 Sb         0.0000000000        0.0000000000        0.0000000000
