      16
 i =        1, E =      -130.9691044395
 Te         5.9460277628       10.4901633345        8.3539601523
 Te         1.1422031631        0.5771985510        3.2568514771
 Te         5.9460277630        0.5771985510        1.8402563639
 Te         1.1422031630       10.4901633361        6.9373650384
 Te         3.5441154631        8.8539191921        2.5485539204
 Te         3.5441154631        2.2134426923        7.6456625956
 Te         1.7874141556        3.7753160959        6.2058430856
 Te         5.3008167715        7.2920457936        1.1087344096
 Te         1.7874141546        7.2920457938        3.9883734309
 Te         5.3008167718        3.7753160921        9.0854821063
 Te         2.4033403756        8.3684385486        8.3431809056
 Te         4.6848905498        2.6989233389        3.2460722293
 Te         2.4033403763        2.6989233391        1.8510356113
 Te         4.6848905496        8.3684385476        6.9481442868
 Te        -0.0000002384        5.7733741254        2.5485539204
 Te        -0.0000002384        5.2939877593        7.6456625956
      16
 i =        2, E =      -130.9691061251
 Te         5.9461208704       10.4899474140        8.3537537008
 Te         1.1424498698        0.5777692766        3.2566789859
 Te         5.9461208707        0.5777692766        1.8403948950
 Te         1.1424498698       10.4899474149        6.9374696103
 Te         3.5442853702        8.8550360239        2.5485369404
 Te         3.5442853702        2.2126806673        7.6456116557
 Te         1.7874594478        3.7753540418        6.2049004973
 Te         5.3011112931        7.2923626515        1.1078257815
 Te         1.7874594474        7.2923626515        3.9892480994
 Te         5.3011112930        3.7753540400        9.0863228147
 Te         2.4036046786        8.3686778843        8.3429802248
 Te         4.6849660614        2.6990388075        3.2459055088
 Te         2.4036046790        2.6990388075        1.8511683720
 Te         4.6849660614        8.3686778840        6.9482430873
 Te        -0.0000002384        5.7734445870        2.5485369404
 Te        -0.0000002384        5.2942721045        7.6456116557
      16
 i =        3, E =      -130.9690597056
 Te         5.9444096818       10.4882591565        8.3513530775
 Te         1.1418799265        0.5805659402        3.2555233833
 Te         5.9444096797        0.5805659367        1.8403054667
 Te         1.1418799269       10.4882591616        6.9361351550
 Te         3.5431448039        8.8569551437        2.5479144273
 Te         3.5431448039        2.2118699502        7.6437441162
 Te         1.7873431047        3.7741559517        6.2016093743
 Te         5.2989465039        7.2946691504        1.1057796860
 Te         1.7873431038        7.2946691499        3.9900491685
 Te         5.2989465041        3.7741559482        9.0858788572
 Te         2.4028118627        8.3678673982        8.3423177325
 Te         4.6834777381        2.7009577114        3.2464880509
 Te         2.4028118730        2.7009577153        1.8493408005
 Te         4.6834777357        8.3678673852        6.9451704912
 Te        -0.0000002384        5.7767766763        2.5479144273
 Te        -0.0000002384        5.2920484229        7.6437441162
      16
 i =        4, E =      -130.9690611515
 Te         5.9439667330       10.4885215256        8.3515867652
 Te         1.1425469329        0.5805687207        3.2558629190
 Te         5.9439667320        0.5805687198        1.8398600908
 Te         1.1425469326       10.4885215275        6.9355839371
 Te         3.5432568325        8.8572183918        2.5478615058
 Te         3.5432568325        2.2118718533        7.6435853517
 Te         1.7873980893        3.7741033858        6.2016831553
 Te         5.2991155761        7.2949868630        1.1059593099
 Te         1.7873980889        7.2949868630        3.9897637018
 Te         5.2991155761        3.7741033850        9.0854875478
 Te         2.4032172951        8.3677690213        8.3421002035
 Te         4.6832963663        2.7013212323        3.2463763616
 Te         2.4032172991        2.7013212324        1.8493466500
 Te         4.6832963670        8.3677690171        6.9450704970
 Te        -0.0000002384        5.7770889247        2.5478615058
 Te        -0.0000002384        5.2920013236        7.6435853517
      16
 i =        5, E =      -130.9690524783
 Te         5.9435006014       10.4893774094        8.3491410349
 Te         1.1426938765        0.5813686397        3.2545891054
 Te         5.9435006001        0.5813686388        1.8399619882
 Te         1.1426938758       10.4893774117        6.9345139191
 Te         3.5430972382        8.8596162329        2.5472755480
 Te         3.5430972382        2.2111298129        7.6418274780
 Te         1.7871297745        3.7737001829        6.2012912822
 Te         5.2990647025        7.2970458698        1.1067393526
 Te         1.7871297740        7.2970458697        3.9878117435
 Te         5.2990647024        3.7737001819        9.0823636737
 Te         2.4031933062        8.3674552157        8.3403939120
 Te         4.6830011651        2.7032908442        3.2458419881
 Te         2.4031933113        2.7032908434        1.8487091086
 Te         4.6830011667        8.3674552104        6.9432610403
 Te        -0.0000002384        5.7790093724        2.5472755480
 Te        -0.0000002384        5.2917366795        7.6418274780
      16
 i =        6, E =      -130.9690532817
 Te         5.9435876368       10.4907011774        8.3452889080
 Te         1.1435838614        0.5833381445        3.2524992982
 Te         5.9435876326        0.5833381390        1.8402894634
 Te         1.1435838612       10.4907011783        6.9330790638
 Te         3.5435857477        8.8648658817        2.5463943838
 Te         3.5435857477        2.2091734283        7.6391839851
 Te         1.7873090609        3.7727288103        6.1993921917
 Te         5.2998624346        7.3013105101        1.1066025901
 Te         1.7873090607        7.3013105097        3.9861861773
 Te         5.2998624345        3.7727288086        9.0789757791
 Te         2.4032846072        8.3673568599        8.3379363026
 Te         4.6838868782        2.7066824801        3.2451467178
 Te         2.4032846216        2.7066824855        1.8476420463
 Te         4.6838868760        8.3673568371        6.9404316496
 Te        -0.0000002384        5.7815038025        2.5463943838
 Te        -0.0000002384        5.2925355169        7.6391839851
      16
 i =        7, E =      -130.9690533448
 Te         5.9431133210       10.4902014990        8.3451021485
 Te         1.1434563637        0.5836486231        3.2523840771
 Te         5.9431133194        0.5836486212        1.8403331560
 Te         1.1434563631       10.4902014999        6.9330512258
 Te         3.5432848416        8.8646274137        2.5463586179
 Te         3.5432848416        2.2092227038        7.6390766875
 Te         1.7871359127        3.7726063629        6.1989797057
 Te         5.2994337705        7.3012437597        1.1062616361
 Te         1.7871359127        7.3012437597        3.9864555998
 Te         5.2994337705        3.7726063624        9.0791736695
 Te         2.4034634228        8.3672447197        8.3376128112
 Te         4.6831062546        2.7066054134        3.2448947502
 Te         2.4034634294        2.7066054137        1.8478224856
 Te         4.6831062556        8.3672447113        6.9405405572
 Te        -0.0000002384        5.7817041923        2.5463586179
 Te        -0.0000002384        5.2921459300        7.6390766875
      16
 i =        8, E =      -130.9690521056
 Te         5.9422148986       10.4884888412        8.3454294870
 Te         1.1434326063        0.5849398969        3.2527344504
 Te         5.9422148974        0.5849398956        1.8399597493
 Te         1.1434326055       10.4884888420        6.9326547859
 Te         3.5428237518        8.8639353109        2.5463471011
 Te         3.5428237518        2.2094934219        7.6390421371
 Te         1.7868705495        3.7720203285        6.1971204880
 Te         5.2987769538        7.3014084103        1.1044254519
 Te         1.7868705497        7.3014084103        3.9882687504
 Te         5.2987769538        3.7720203283        9.0809637864
 Te         2.4032302613        8.3665206805        8.3382840851
 Te         4.6824172366        2.7069080683        3.2455890570
 Te         2.4032302667        2.7069080671        1.8471051462
 Te         4.6824172385        8.3665206741        6.9398001840
 Te        -0.0000002383        5.7829254823        2.5463471011
 Te        -0.0000002383        5.2905032565        7.6390421371
      16
 i =        9, E =      -130.9690518877
 Te         5.9418033603       10.4881195547        8.3450305445
 Te         1.1431655550        0.5853751432        3.2525713311
 Te         5.9418033594        0.5853751421        1.8398870463
 Te         1.1431655546       10.4881195551        6.9323462593
 Te         3.5424844572        8.8637894051        2.5462291895
 Te         3.5424844572        2.2097052893        7.6386884023
 Te         1.7868122662        3.7716723586        6.1967329261
 Te         5.2981566479        7.3018223390        1.1042737133
 Te         1.7868122664        7.3018223390        3.9881846658
 Te         5.2981566479        3.7716723588        9.0806438786
 Te         2.4029882250        8.3661404775        8.3382729271
 Te         4.6819806859        2.7073542268        3.2458137194
 Te         2.4029882287        2.7073542265        1.8466446599
 Te         4.6819806868        8.3661404731        6.9391038739
 Te        -0.0000002383        5.7836407894        2.5462291895
 Te        -0.0000002383        5.2898539086        7.6386884023
      16
 i =       10, E =      -130.9690493948
 Te         5.9405591556       10.4879241497        8.3433168531
 Te         1.1437412796        0.5870576762        3.2518917443
 Te         5.9405591509        0.5870576697        1.8395325153
 Te         1.1437412789       10.4879241506        6.9309576143
 Te         3.5421502157        8.8660611576        2.5457121333
 Te         3.5421502157        2.2089206535        7.6371372336
 Te         1.7868643975        3.7709036138        6.1953511584
 Te         5.2974360330        7.3040782074        1.1039260585
 Te         1.7868643983        7.3040782070        3.9874982080
 Te         5.2974360329        3.7709036153        9.0789233085
 Te         2.4031710281        8.3654622484        8.3371549235
 Te         4.6811293906        2.7095195982        3.2457298435
 Te         2.4031710453        2.7095196033        1.8456944199
 Te         4.6811293889        8.3654622245        6.9371195232
 Te        -0.0000002383        5.7860319607        2.5457121333
 Te        -0.0000002383        5.2889498623        7.6371372336
      16
 i =       11, E =      -130.9690500576
 Te         5.9409711974       10.4879456319        8.3428158926
 Te         1.1435223764        0.5872444278        3.2514585057
 Te         5.9409711959        0.5872444260        1.8398980435
 Te         1.1435223758       10.4879456330        6.9312554294
 Te         3.5422467861        8.8666783117        2.5456782761
 Te         3.5422467861        2.2085117436        7.6370356617
 Te         1.7868208709        3.7709736735        6.1951273502
 Te         5.2976727011        7.3042163860        1.1037699647
 Te         1.7868208711        7.3042163860        3.9875865874
 Te         5.2976727011        3.7709736740        9.0789439732
 Te         2.4029905712        8.3656157405        8.3370174606
 Te         4.6815029951        2.7095743298        3.2456600835
 Te         2.4029905778        2.7095743298        1.8456964687
 Te         4.6815029962        8.3656157332        6.9370538563
 Te        -0.0000002383        5.7859989795        2.5456782761
 Te        -0.0000002383        5.2891910808        7.6370356617
      16
 i =       12, E =      -130.9690498331
 Te         5.9410259431       10.4881604857        8.3423484430
 Te         1.1438236045        0.5875065166        3.2511789748
 Te         5.9410259409        0.5875065142        1.8399896546
 Te         1.1438236031       10.4881604878        6.9311591231
 Te         3.5424247725        8.8675907191        2.5455843171
 Te         3.5424247725        2.2080762758        7.6367537846
 Te         1.7868767402        3.7709071432        6.1949107153
 Te         5.2979728045        7.3047598596        1.1037412478
 Te         1.7868767404        7.3047598597        3.9874273865
 Te         5.2979728045        3.7709071440        9.0785968542
 Te         2.4032150608        8.3657120253        8.3365380699
 Te         4.6816344737        2.7099549958        3.2453686168
 Te         2.4032150711        2.7099549940        1.8458000187
 Te         4.6816344770        8.3657120148        6.9369694899
 Te        -0.0000002383        5.7861215086        2.5455843171
 Te        -0.0000002383        5.2895454958        7.6367537846
