       4
 i =        1, E =       -65.9864422788
 Cs         3.3055655618        1.7467471818        1.2353291410
 Cs         9.9178837497        5.8051672878        4.1055148837
 Cs         6.6115415411        3.5743320856        2.5278292059
 Sb         0.0001390269       -0.0001793190       -0.0001267673
       4
 i =        2, E =       -65.9884226788
 Cs         3.2827154186        1.8171996025        1.2957152133
 Cs         9.9126030726        5.6655071774        4.0397783624
 Cs         6.5875063837        3.6731314268        2.6190834603
 Sb         0.0075312512       -0.0102632829       -0.0073091233
       4
 i =        3, E =       -65.9884269320
 Cs         3.2822699147        1.8183675527        1.2967182565
 Cs         9.9122797974        5.6631748310        4.0386490991
 Cs         6.5868983528        3.6752239919        2.6209214288
 Sb         0.0076882353       -0.0110413910       -0.0078644299
       4
 i =        4, E =       -65.9884498660
 Cs         3.2805469444        1.8221108657        1.2999177688
 Cs         9.9101972484        5.6556153704        4.0349225303
 Cs         6.5840376149        3.6839142912        2.6282013232
 Sb         0.0083434355       -0.0161921299       -0.0115387847
       4
 i =        5, E =       -65.9884890401
 Cs         3.2781030841        1.8259464135        1.3031642232
 Cs         9.9057566971        5.6476378492        4.0308457751
 Cs         6.5790485084        3.6972041824        2.6387383858
 Sb         0.0093637303       -0.0273031104       -0.0194661389
       4
 i =        6, E =       -65.9885582572
 Cs         3.2741753234        1.8293190799        1.3059364160
 Cs         9.8959542547        5.6399464200        4.0265562872
 Cs         6.5693639733        3.7200763556        2.6558536345
 Sb         0.0112225164       -0.0518920838       -0.0370108840
       4
 i =        7, E =       -65.9886185604
 Cs         3.2716414059        1.8274404804        1.3041772809
 Cs         9.8857417123        5.6423354414        4.0270390579
 Cs         6.5608157745        3.7368464687        2.6670184849
 Sb         0.0127563935       -0.0771819230       -0.0550340424
       4
 i =        8, E =       -65.9886516848
 Cs         3.2715734467        1.8216077253        1.2990908407
 Cs         9.8800335013        5.6526846648        4.0315846693
 Cs         6.5576261611        3.7397588686        2.6672210244
 Sb         0.0131302229       -0.0905526467       -0.0645245653
       4
 i =        9, E =       -65.9886569209
 Cs         3.2724443575        1.8183566810        1.2963271293
 Cs         9.8803208084        5.6585582514        4.0343739608
 Cs         6.5590494126        3.7347773273        2.6627454477
 Sb         0.0126494801       -0.0889813524       -0.0633842543
