       4
 i =        1, E =       -65.9845526845
 Cs         3.3060063166        1.7468529760        1.2353632151
 Cs         9.9180155031        5.8054637094        4.1055884979
 Cs         6.6120121587        3.5741637837        2.5276277397
 Sb        -0.0000000125        0.0000399292        0.0000282243
       4
 i =        2, E =       -65.9862863628
 Cs         3.3066315064        1.8170792795        1.2926396210
 Cs         9.9198249887        5.6915752247        4.0489406347
 Cs         6.6132648663        3.6566434592        2.6013466618
 Sb        -0.0000020961        0.0014905128        0.0010625986
       4
 i =        3, E =       -65.9863122579
 Cs         3.3067712598        1.8256544171        1.2996095748
 Cs         9.9202542235        5.6781650590        4.0421116254
 Cs         6.6135529764        3.6667776109        2.6103102350
 Sb        -0.0000038496        0.0010985396        0.0007843675
       4
 i =        4, E =       -65.9863160711
 Cs         3.3068796038        1.8278628942        1.3013484440
 Cs         9.9205888355        5.6752031265        4.0405230646
 Cs         6.6137788831        3.6695007233        2.6125847697
 Sb        -0.0000059649        0.0004061272        0.0002913170
       4
 i =        5, E =       -65.9863249351
 Cs         3.3072301667        1.8317375452        1.3042721321
 Cs         9.9216775728        5.6710899641        4.0381109774
 Cs         6.6145137316        3.6745325992        2.6164994983
 Sb        -0.0000132576       -0.0021211714       -0.0015089392
       4
 i =        6, E =       -65.9863460661
 Cs         3.3081942625        1.8386403185        1.3092073374
 Cs         9.9246981397        5.6660522875        4.0345979563
 Cs         6.6165454953        3.6840687284        2.6233288285
 Sb        -0.0000307761       -0.0094202462       -0.0067085428
       4
 i =        7, E =       -65.9863847276
 Cs         3.3102599615        1.8489111707        1.3160307396
 Cs         9.9312518882        5.6627494084        4.0307685879
 Cs         6.6209286161        3.6994411826        2.6332870886
 Sb        -0.0000488533       -0.0255476097       -0.0181903441
       4
 i =        8, E =       -65.9864322850
 Cs         3.3130760882        1.8577826599        1.3210675626
 Cs         9.9403077194        5.6665858280        4.0296294803
 Cs         6.6269539520        3.7148637137        2.6416937263
 Sb        -0.0000254259       -0.0480745413       -0.0341985782
       4
 i =        9, E =       -65.9864624415
 Cs         3.3152170342        1.8596910778        1.3208961169
 Cs         9.9472929427        5.6769463998        4.0323479188
 Cs         6.6316056112        3.7216468205        2.6434413279
 Sb         0.0000312293       -0.0655094973       -0.0465477621
       4
 i =       10, E =       -65.9864700885
 Cs         3.3155761406        1.8564502842        1.3179409776
 Cs         9.9485968365        5.6836973220        4.0351419228
 Cs         6.6324825451        3.7195367543        2.6406275044
 Sb         0.0000434543       -0.0684982829       -0.0486469317
       4
 i =       11, E =       -65.9864725748
 Cs         3.3153863738        1.8535864957        1.3157457346
 Cs         9.9481909147        5.6861033107        4.0363470137
 Cs         6.6322041495        3.7169552947        2.6384688340
 Sb         0.0000356344       -0.0669270727       -0.0475245628
       4
 i =       12, E =       -65.9864755841
 Cs         3.3151565745        1.8505311607        1.3134319875
 Cs         9.9478850597        5.6875835202        4.0369443339
 Cs         6.6319650553        3.7150781941        2.6368452115
 Sb         0.0000255553       -0.0648842899       -0.0460676583
       4
 i =       13, E =       -65.9864818351
 Cs         3.3149211018        1.8454417541        1.3094738890
 Cs         9.9483490046        5.6888490408        4.0367596883
 Cs         6.6321564481        3.7144258456        2.6356850986
 Sb         0.0000115477       -0.0623454561       -0.0442500325
       4
 i =       14, E =       -65.9864939027
 Cs         3.3150777418        1.8389037129        1.3040554436
 Cs         9.9514813327        5.6887847621        4.0342754372
 Cs         6.6339681038        3.7192025866        2.6374949150
 Sb         0.0000015061       -0.0620717273       -0.0440225871
       4
 i =       15, E =       -65.9865114969
 Cs         3.3161014373        1.8328651487        1.2984217294
 Cs         9.9592150773        5.6854040408        4.0276472056
 Cs         6.6386181303        3.7343851682        2.6455002868
 Sb         0.0000054011       -0.0674538971       -0.0477797451
       4
 i =       16, E =       -65.9865204240
 Cs         3.3173227852        1.8331901579        1.2978161332
 Cs         9.9659094025        5.6802802903        4.0214101829
 Cs         6.6427173850        3.7496148817        2.6545737528
 Sb         0.0000260988       -0.0752019143       -0.0532294423
       4
 i =       17, E =       -65.9865223723
 Cs         3.3178367787        1.8364639632        1.3001129217
 Cs         9.9676608814        5.6776147399        4.0194627368
 Cs         6.6438299159        3.7548003137        2.6582010668
 Sb         0.0000394008       -0.0789416136       -0.0558770020
       4
 i =       18, E =       -65.9865225931
 Cs         3.3180313978        1.8379933300        1.3012260872
 Cs         9.9680918420        5.6769626878        4.0190987524
 Cs         6.6441153045        3.7561357574        2.6592084324
 Sb         0.0000422216       -0.0803647113       -0.0568867759
       4
 i =       19, E =       -65.9865226241
 Cs         3.3180564960        1.8382466558        1.3014278498
 Cs         9.9680550780        5.6769621783        4.0191683936
 Cs         6.6440932815        3.7560575418        2.6591988588
 Sb         0.0000384818       -0.0804423404       -0.0569430577
       4
 i =       20, E =       -65.9865227902
 Cs         3.3182011664        1.8390608068        1.3020855545
 Cs         9.9679784250        5.6770753056        4.0195013737
 Cs         6.6440340227        3.7556369924        2.6590668652
 Sb         0.0000101232       -0.0805929203       -0.0570547568
       4
 i =       21, E =       -65.9865230840
 Cs         3.3185081104        1.8398227829        1.3026897585
 Cs         9.9682084398        5.6772943954        4.0198562751
 Cs         6.6441371063        3.7553705835        2.6590092753
 Sb        -0.0000476550       -0.0808043670       -0.0572094563
       4
 i =       22, E =       -65.9865237924
 Cs         3.3193430589        1.8406883461        1.3033326622
 Cs         9.9693782995        5.6778065160        4.0203068790
 Cs         6.6447438236        3.7556065845        2.6592342906
 Sb        -0.0001964012       -0.0813461745       -0.0575987303
       4
 i =       23, E =       -65.9865245986
 Cs         3.3205349137        1.8406801974        1.3032258442
 Cs         9.9715671012        5.6784798438        4.0204602513
 Cs         6.6459296782        3.7568391784        2.6598953566
 Sb        -0.0003983553       -0.0820181123       -0.0580745864
       4
 i =       24, E =       -65.9865252090
 Cs         3.3214246855        1.8396154151        1.3022672347
 Cs         9.9736644460        5.6788962823        4.0201101313
 Cs         6.6471192068        3.7586387712        2.6607467271
 Sb        -0.0005305851       -0.0824866404       -0.0583990348
       4
 i =       25, E =       -65.9865253668
 Cs         3.3216635390        1.8386936527        1.3014656553
 Cs         9.9745598527        5.6788889196        4.0196386358
 Cs         6.6476808866        3.7598993703        2.6613330319
 Sb        -0.0005383481       -0.0827328464       -0.0585658901
       4
 i =       26, E =       -65.9865253885
 Cs         3.3216089936        1.8384222114        1.3012511963
 Cs         9.9744962531        5.6788832643        4.0195653965
 Cs         6.6476866763        3.7599650354        2.6613342520
 Sb        -0.0005074083       -0.0826132358       -0.0584794581
       4
 i =       27, E =       -65.9865254122
 Cs         3.3215989985        1.8382081239        1.3010817352
 Cs         9.9744124135        5.6789290741        4.0195423427
 Cs         6.6477251486        3.7600105116        2.6613303404
 Sb        -0.0004580828       -0.0824755922       -0.0583803664
       4
 i =       28, E =       -65.9865254656
 Cs         3.3217551412        1.8379509410        1.3008663855
 Cs         9.9744042092        5.6791399620        4.0195880148
 Cs         6.6479553368        3.7601959289        2.6613943449
 Sb        -0.0003498223       -0.0822832905       -0.0582413639
       4
 i =       29, E =       -65.9865255778
 Cs         3.3223714009        1.8377265843        1.3006459333
 Cs         9.9746764745        5.6797709833        4.0198418777
 Cs         6.6486756899        3.7607122738        2.6616350269
 Sb        -0.0001235412       -0.0820337585       -0.0580598441
       4
 i =       30, E =       -65.9865257484
 Cs         3.3237430068        1.8378107528        1.3006196600
 Cs         9.9755145551        5.6810294771        4.0204625805
 Cs         6.6501406796        3.7616968376        2.6621575667
 Sb         0.0002296936       -0.0818472281       -0.0579217139
       4
 i =       31, E =       -65.9865258988
 Cs         3.3254371717        1.8384029776        1.3009748989
 Cs         9.9767485538        5.6824652386        4.0212757774
 Cs         6.6518386629        3.7627738063        2.6627893682
 Sb         0.0005407058       -0.0819113601       -0.0579634755
       4
 i =       32, E =       -65.9865259634
 Cs         3.3263011625        1.8390571734        1.3014331403
 Cs         9.9775373474        5.6831151167        4.0217186143
 Cs         6.6526328845        3.7632340299        2.6631046184
 Sb         0.0006081157       -0.0821500487       -0.0581332090
       4
 i =       33, E =       -65.9865259829
 Cs         3.3263647606        1.8393099473        1.3016247904
 Cs         9.9777244062        5.6831199322        4.0217614676
 Cs         6.6526581977        3.7632241645        2.6631230669
 Sb         0.0005526712       -0.0822840306       -0.0582295261
       4
 i =       34, E =       -65.9865259939
 Cs         3.3263239193        1.8393991828        1.3016922140
 Cs         9.9778081240        5.6830726841        4.0217414829
 Cs         6.6526116865        3.7631796039        2.6630998592
 Sb         0.0005046666       -0.0823283366       -0.0582615514
       4
 i =       35, E =       -65.9865260181
 Cs         3.3262802683        1.8395766657        1.3018143577
 Cs         9.9781080470        5.6830369612        4.0217059951
 Cs         6.6525882519        3.7631249427        2.6630531540
 Sb         0.0003978008       -0.0823694542       -0.0582914082
