       2
 i =        1, E =        -1.1611801877
  H         2.0000000000        2.0000000000        2.7277371179
  H         2.0000000000        2.0000000000        2.0094288821
       2
 i =        2, E =        -1.1611853698
  H         2.0000000000        2.0000000000        2.7290247703
  H         2.0000000000        2.0000000000        2.0081412297
       2
 i =        3, E =        -1.1611853698
  H         2.0000000000        2.0000000000        2.7290247703
  H         2.0000000000        2.0000000000        2.0081412297
