       4
 i =        1, E =       -65.9869762715
 Cs         2.3377474746        2.3376905500        2.3376336254
 Cs         7.0132424238        7.0130716500        7.0129008762
 Cs         4.6754949492        4.6753811000        4.6752672508
 Sb         0.0000000000        0.0000000000        0.0000000000
       4
 i =        2, E =       -65.9870187123
 Cs         2.3439591054        2.3376905312        2.3314216544
 Cs         7.0318773162        7.0130715935        6.9942649633
 Cs         4.6879182108        4.6753810623        4.6628433089
 Sb         0.0000000000        0.0000000000        0.0000000000
       4
 i =        3, E =       -65.9870170949
 Cs         2.3441994195        2.3376905108        2.3311812764
 Cs         7.0325982585        7.0130715324        6.9935438293
 Cs         4.6883988390        4.6753810216        4.6623625529
 Sb         0.0000000000        0.0000000000        0.0000000000
       4
 i =        4, E =       -65.9870173169
 Cs         2.3441994195        2.3376905108        2.3311812764
 Cs         7.0325982585        7.0130715324        6.9935438293
 Cs         4.6883988390        4.6753810216        4.6623625529
 Sb         0.0000000000        0.0000000000        0.0000000000
