       4
 i =        1, E =       -65.9845526845
 Cs         3.3060063166        1.7468529760        1.2353632151
 Cs         9.9180155031        5.8054637094        4.1055884979
 Cs         6.6120121587        3.5741637837        2.5276277397
 Sb        -0.0000000125        0.0000399292        0.0000282243
       4
 i =        2, E =       -65.9862863628
 Cs         3.3066315064        1.8170792795        1.2926396210
 Cs         9.9198249887        5.6915752247        4.0489406348
 Cs         6.6132648663        3.6566434592        2.6013466618
 Sb        -0.0000020961        0.0014905128        0.0010625986
       4
 i =        3, E =       -65.9863122579
 Cs         3.3067712598        1.8256544171        1.2996095748
 Cs         9.9202542235        5.6781650590        4.0421116254
 Cs         6.6135529764        3.6667776109        2.6103102350
 Sb        -0.0000038496        0.0010985396        0.0007843675
       4
 i =        4, E =       -65.9863160711
 Cs         3.3068796038        1.8278628942        1.3013484440
 Cs         9.9205888355        5.6752031265        4.0405230646
 Cs         6.6137788831        3.6695007233        2.6125847696
 Sb        -0.0000059649        0.0004061272        0.0002913170
       4
 i =        5, E =       -65.9863249351
 Cs         3.3072301667        1.8317375452        1.3042721321
 Cs         9.9216775728        5.6710899641        4.0381109774
 Cs         6.6145137316        3.6745325992        2.6164994983
 Sb        -0.0000132576       -0.0021211714       -0.0015089392
       4
 i =        6, E =       -65.9863460661
 Cs         3.3081942625        1.8386403185        1.3092073374
 Cs         9.9246981397        5.6660522875        4.0345979563
 Cs         6.6165454953        3.6840687284        2.6233288285
 Sb        -0.0000307761       -0.0094202462       -0.0067085428
       4
 i =        7, E =       -65.9863847276
 Cs         3.3102599615        1.8489111707        1.3160307396
 Cs         9.9312518882        5.6627494084        4.0307685879
 Cs         6.6209286161        3.6994411826        2.6332870886
 Sb        -0.0000488533       -0.0255476097       -0.0181903441
       4
 i =        8, E =       -65.9864322850
 Cs         3.3130760882        1.8577826599        1.3210675626
 Cs         9.9403077194        5.6665858280        4.0296294803
 Cs         6.6269539520        3.7148637137        2.6416937263
 Sb        -0.0000254259       -0.0480745412       -0.0341985782
       4
 i =        9, E =       -65.9864624415
 Cs         3.3152170342        1.8596910778        1.3208961169
 Cs         9.9472929427        5.6769463998        4.0323479188
 Cs         6.6316056112        3.7216468206        2.6434413279
 Sb         0.0000312293       -0.0655094973       -0.0465477621
       4
 i =       10, E =       -65.9864700885
 Cs         3.3155761406        1.8564502842        1.3179409776
 Cs         9.9485968365        5.6836973220        4.0351419228
 Cs         6.6324825451        3.7195367543        2.6406275044
 Sb         0.0000434543       -0.0684982829       -0.0486469317
       4
 i =       11, E =       -65.9864725748
 Cs         3.3153863738        1.8535864957        1.3157457346
 Cs         9.9481909147        5.6861033107        4.0363470137
 Cs         6.6322041495        3.7169552947        2.6384688340
 Sb         0.0000356344       -0.0669270727       -0.0475245627
