8
Lattice="6.352372 0.0 0.0 0.0 6.48843 0.0 0.0 0.0 6.50298" Properties=species:S:1:pos:R:3:tags:I:1 pbc="T T T"
H        1.69610238       3.24421500       4.56088453        0
H        1.69610238       3.24421500       1.94209547        0
H        4.39840778       3.24421500       3.25149000        0
H        3.29338091       3.24421500       1.24368842        0
H        3.29338091       3.24421500       5.25929158        0
C        3.30215989       3.24421500       3.25149000        0
N        2.71060795       3.24421500       2.07983509        0
N        2.71060795       3.24421500       4.42314491        0
