       4
 i =        1, E =       -65.9885471455
 Cs         3.3060294249        1.9087576155        1.3497100462
 Cs         9.9180882747        5.7262728465        4.0491301385
 Cs         6.6120588498        3.8175152310        2.6994200923
 Sb         0.0000000000        0.0000000000        0.0000000000
       4
 i =        2, E =       -65.9885646441
 Cs         3.3094344235        1.9126894085        1.3538803847
 Cs         9.9283032706        5.7380682255        4.0616411542
 Cs         6.6188688471        3.8253788170        2.7077607695
 Sb         0.0000000000        0.0000000000        0.0000000000
       4
 i =        3, E =       -65.9885644696
 Cs         3.3093945545        1.9126433675        1.3538315471
 Cs         9.9281836634        5.7379301025        4.0614946413
 Cs         6.6187891090        3.8252867350        2.7076630942
 Sb         0.0000000000        0.0000000000        0.0000000000
       4
 i =        4, E =       -65.9885886717
 Cs         3.3093945545        1.9126433675        1.3538315471
 Cs         9.9281836634        5.7379301025        4.0614946413
 Cs         6.6187891090        3.8252867350        2.7076630942
 Sb         0.0000000000        0.0000000000        0.0000000000
