       4
 i =        1, E =       -65.9864189458
 Cs         2.1392005614        2.3374309124        2.3372787776
 Cs         7.1095556053        7.0131112585        7.0126023994
 Cs         4.3774294103        4.6751457276        4.6748325424
 Sb        -0.0002200871        0.0000987293        0.0000990817
       4
 i =        2, E =       -65.9884405680
 Cs         2.2183937601        2.3235745979        2.3152793035
 Cs         6.9247752231        7.0154683874        6.9891869451
 Cs         4.4858967215        4.6625397651        4.6456157999
 Sb        -0.0124794915        0.0052861253        0.0053414985
       4
 i =        3, E =       -65.9884472640
 Cs         2.2211903942        2.3229566378        2.3144739084
 Cs         6.9180541269        7.0154706633        6.9884481500
 Cs         4.4902257321        4.6619493579        4.6445609510
 Sb        -0.0136671955        0.0054777302        0.0055220021
       4
 i =        4, E =       -65.9884544987
 Cs         2.2231716364        2.3223004563        2.3138727491
 Cs         6.9129368732        7.0153051678        6.9880037922
 Cs         4.4941615860        4.6612835715        4.6437951560
 Sb        -0.0158160864        0.0056287782        0.0056400471
       4
 i =        5, E =       -65.9884799482
 Cs         2.2270424068        2.3203003399        2.3125910119
 Cs         6.9017351880        7.0144224032        6.9873864993
 Cs         4.5047309878        4.6591563914        4.6422248729
 Sb        -0.0243064173        0.0059748873        0.0058399722
