       4
 i =        1, E =       -65.9864422788
 Cs         3.3055655618        1.7467471818        1.2353291410
 Cs         9.9178837497        5.8051672878        4.1055148837
 Cs         6.6115415411        3.5743320856        2.5278292059
 Sb         0.0001390269       -0.0001793190       -0.0001267673
       4
 i =        2, E =       -65.9884226788
 Cs         3.2827154186        1.8171996025        1.2957152133
 Cs         9.9126030726        5.6655071775        4.0397783624
 Cs         6.5875063837        3.6731314268        2.6190834603
 Sb         0.0075312512       -0.0102632829       -0.0073091233
       4
 i =        3, E =       -65.9884269320
 Cs         3.2822699147        1.8183675527        1.2967182565
 Cs         9.9122797974        5.6631748310        4.0386490991
 Cs         6.5868983528        3.6752239919        2.6209214288
 Sb         0.0076882353       -0.0110413910       -0.0078644299
       4
 i =        4, E =       -65.9884498660
 Cs         3.2805469444        1.8221108657        1.2999177688
 Cs         9.9101972484        5.6556153704        4.0349225304
 Cs         6.5840376150        3.6839142912        2.6282013232
 Sb         0.0083434355       -0.0161921299       -0.0115387847
       4
 i =        5, E =       -65.9884890401
 Cs         3.2781030841        1.8259464134        1.3031642231
 Cs         9.9057566972        5.6476378493        4.0308457752
 Cs         6.5790485084        3.6972041822        2.6387383857
 Sb         0.0093637303       -0.0273031103       -0.0194661388
       4
 i =        6, E =       -65.9885582572
 Cs         3.2741753234        1.8293190799        1.3059364160
 Cs         9.8959542548        5.6399464201        4.0265562873
 Cs         6.5693639734        3.7200763555        2.6558536344
 Sb         0.0112225164       -0.0518920835       -0.0370108838
       4
 i =        7, E =       -65.9886185604
 Cs         3.2716414059        1.8274404805        1.3041772809
 Cs         9.8857417124        5.6423354413        4.0270390578
 Cs         6.5608157745        3.7368464687        2.6670184848
 Sb         0.0127563935       -0.0771819228       -0.0550340422
       4
 i =        8, E =       -65.9886516848
 Cs         3.2715734467        1.8216077253        1.2990908408
 Cs         9.8800335013        5.6526846647        4.0315846692
 Cs         6.5576261611        3.7397588686        2.6672210245
 Sb         0.0131302229       -0.0905526467       -0.0645245653
       4
 i =        9, E =       -65.9886569209
 Cs         3.2724443575        1.8183566810        1.2963271293
 Cs         9.8803208084        5.6585582513        4.0343739608
 Cs         6.5590494126        3.7347773273        2.6627454477
 Sb         0.0126494801       -0.0889813524       -0.0633842543
       4
 i =       10, E =       -65.9886578484
 Cs         3.2726347962        1.8174695631        1.2956069996
 Cs         9.8808348669        5.6597994920        4.0349720971
 Cs         6.5599183667        3.7324797389        2.6609184510
 Sb         0.0123622769       -0.0869341467       -0.0619226311
       4
 i =       11, E =       -65.9886589491
 Cs         3.2724683334        1.8165140859        1.2948672710
 Cs         9.8810156340        5.6604815730        4.0352536584
 Cs         6.5606569683        3.7304854993        2.6593620197
 Sb         0.0120043624       -0.0848167463       -0.0604136176
       4
 i =       12, E =       -65.9886615440
 Cs         3.2713622859        1.8145428147        1.2933941701
 Cs         9.8802726947        5.6607472309        4.0351768583
 Cs         6.5614175625        3.7280592934        2.6574574878
 Sb         0.0112676743       -0.0817810483       -0.0582540350
       4
 i =       13, E =       -65.9886666549
 Cs         3.2678977365        1.8106193924        1.2905527946
 Cs         9.8769718289        5.6593799655        4.0339389635
 Cs         6.5617198534        3.7258665623        2.6557218212
 Sb         0.0097649941       -0.0777608884       -0.0554030355
       4
 i =       14, E =       -65.9886760755
 Cs         3.2625804999        1.8064537166        1.2876420126
 Cs         9.8708714924        5.6556008934        4.0312810850
 Cs         6.5602622616        3.7272976161        2.6567664620
 Sb         0.0081602125       -0.0767376819       -0.0546951520
       4
 i =       15, E =       -65.9886803056
 Cs         3.2569106347        1.8036209190        1.2858015636
 Cs         9.8635343465        5.6501213216        4.0278154065
 Cs         6.5571408309        3.7325684446        2.6608153463
 Sb         0.0069824171       -0.0796342940       -0.0567825686
       4
 i =       16, E =       -65.9886812455
 Cs         3.2558749903        1.8041320632        1.2862783616
 Cs         9.8616797030        5.6482314853        4.0268212838
 Cs         6.5556613831        3.7355288246        2.6631598096
 Sb         0.0070252850       -0.0823127332       -0.0586965328
       4
 i =       17, E =       -65.9886815778
 Cs         3.2559685741        1.8049447795        1.2869160163
 Cs         9.8613407402        5.6477628447        4.0266899170
 Cs         6.5550638803        3.7365679939        2.6640355037
 Sb         0.0071441895       -0.0836220192       -0.0596299407
       4
 i =       18, E =       -65.9886825424
 Cs         3.2560123558        1.8059924091        1.2877465066
 Cs         9.8606016327        5.6472753004        4.0266325683
 Cs         6.5542519663        3.7373299264        2.6647726961
 Sb         0.0071025957       -0.0849725261       -0.0605931373
       4
 i =       19, E =       -65.9886839721
 Cs         3.2554350917        1.8075869702        1.2890653372
 Cs         9.8580206589        5.6462092895        4.0264864826
 Cs         6.5524794201        3.7377976739        2.6655181828
 Sb         0.0064954909       -0.0867883214       -0.0618913308
       4
 i =       20, E =       -65.9886870529
 Cs         3.2530380218        1.8097383644        1.2909813922
 Cs         9.8509089859        5.6439062343        4.0261005794
 Cs         6.5487003313        3.7369570261        2.6657644053
 Sb         0.0043830253       -0.0888420027       -0.0633681557
       4
 i =       21, E =       -65.9886905266
 Cs         3.2481878959        1.8112002741        1.2925602384
 Cs         9.8388159598        5.6406510234        4.0255006532
 Cs         6.5433904794        3.7332504704        2.6642823461
 Sb         0.0003384810       -0.0892465292       -0.0636797075
       4
 i =       22, E =       -65.9886941373
 Cs         3.2429534313        1.8105961821        1.2925343883
 Cs         9.8274177740        5.6382156602        4.0250238480
 Cs         6.5394040017        3.7276094358        2.6611101214
 Sb        -0.0038739482       -0.0867214649       -0.0619012126
